<nodes>
    <node id="A" x="-500" y="100"/>
    <node id="B" x="-250" y="0"/>
    <node id="C" x="-150" y="-200"/>
    <node id="D" x="-200" y="200"/>
    <node id="J" x="0" y="0" type="traffic_light"/>
</nodes>