<routes>
    <vType id="car" accel="1.0" decel="4.5" maxSpeed="25" length="5"/>

    <route id="north_south" edges="AtoJ JtoC"/>
    <route id="south_north" edges="CtoJ JtoA"/>
    <route id="east_west" edges="BtoJ JtoD"/>
    <route id="west_east" edges="DtoJ JtoB"/>

    <vehicle id="veh0" type="car" route="north_south" depart="0"/>
    <vehicle id="veh1" type="car" route="east_west" depart="2"/>
    <vehicle id="veh2" type="car" route="south_north" depart="4"/>
    <vehicle id="veh3" type="car" route="west_east" depart="6"/>
</routes>
