<?xml version="1.0" encoding="UTF-8"?>

<!-- generated on Wed Jun  4 21:44:31 2025 by Eclipse SUMO netconvert Version 1.4.0
<configuration xmlns:xsi="http://www.w3.org/2001/XMLSchema-instance" xsi:noNamespaceSchemaLocation="http://sumo.dlr.de/xsd/netconvertConfiguration.xsd">

    <input>
        <node-files value="intersection.nod.xml"/>
        <edge-files value="intersection.edg.xml"/>
    </input>

    <output>
        <output-file value="intersection.net.xml"/>
    </output>

    <report>
        <aggregate-warnings value="5"/>
    </report>

</configuration>
-->

<net version="1.3" junctionCornerDetail="5" limitTurnSpeed="5.50" xmlns:xsi="http://www.w3.org/2001/XMLSchema-instance" xsi:noNamespaceSchemaLocation="http://sumo.dlr.de/xsd/net_file.xsd">

    <location netOffset="500.00,200.00" convBoundary="0.00,0.00,500.00,400.00" origBoundary="-500.00,-200.00,0.00,200.00" projParameter="!"/>

    <edge id=":A_0" function="internal">
        <lane id=":A_0_0" index="0" speed="3.65" length="4.67" shape="0.31,301.57 -1.02,301.02 -1.57,300.31 -1.33,299.45 -0.31,298.43"/>
    </edge>
    <edge id=":B_0" function="internal">
        <lane id=":B_0_0" index="0" speed="3.65" length="4.67" shape="250.00,201.60 248.80,200.80 248.40,200.00 248.80,199.20 250.00,198.40"/>
    </edge>
    <edge id=":C_0" function="internal">
        <lane id=":C_0_0" index="0" speed="3.65" length="4.67" shape="348.72,0.96 348.64,-0.48 349.04,-1.28 349.92,-1.44 351.28,-0.96"/>
    </edge>
    <edge id=":D_0" function="internal">
        <lane id=":D_0_0" index="0" speed="3.65" length="4.67" shape="301.13,401.13 299.72,401.41 298.87,401.13 298.59,400.28 298.87,398.87"/>
    </edge>
    <edge id=":J_0" function="internal">
        <lane id=":J_0_0" index="0" speed="10.69" length="23.31" shape="495.04,190.72 497.43,195.55 497.52,200.61 495.32,205.91 490.83,211.43"/>
    </edge>
    <edge id=":J_1" function="internal">
        <lane id=":J_1_0" index="0" speed="11.35" length="4.76" shape="495.04,190.72 495.59,195.45"/>
    </edge>
    <edge id=":J_2" function="internal">
        <lane id=":J_2_0" index="0" speed="10.60" length="4.56" shape="495.04,190.72 495.50,195.26"/>
    </edge>
    <edge id=":J_3" function="internal">
        <lane id=":J_3_0" index="0" speed="3.65" length="2.63" shape="495.04,190.72 495.12,192.16 494.72,192.96 494.43,193.01"/>
    </edge>
    <edge id=":J_16" function="internal">
        <lane id=":J_16_0" index="0" speed="11.35" length="34.96" shape="495.59,195.45 495.73,196.63 489.50,201.50 478.46,205.48 464.70,208.69"/>
    </edge>
    <edge id=":J_17" function="internal">
        <lane id=":J_17_0" index="0" speed="10.60" length="33.80" shape="495.50,195.26 495.60,196.25 488.83,199.56 477.32,201.18 463.68,201.60"/>
    </edge>
    <edge id=":J_18" function="internal">
        <lane id=":J_18_0" index="0" speed="3.65" length="2.04" shape="494.43,193.01 493.84,193.12 492.48,192.64"/>
    </edge>
    <edge id=":J_4" function="internal">
        <lane id=":J_4_0" index="0" speed="9.66" length="31.53" shape="463.68,198.40 477.90,198.04 487.44,196.96 492.30,195.16 492.48,192.64"/>
    </edge>
    <edge id=":J_5" function="internal">
        <lane id=":J_5_0" index="0" speed="10.25" length="38.37" shape="463.68,198.40 476.51,198.91 487.60,200.84 493.52,204.81 490.83,211.43"/>
    </edge>
    <edge id=":J_6" function="internal">
        <lane id=":J_6_0" index="0" speed="5.84" length="14.47" shape="463.68,198.40 467.06,199.85 468.46,203.12 467.73,206.61 464.70,208.69"/>
    </edge>
    <edge id=":J_7" function="internal">
        <lane id=":J_7_0" index="0" speed="3.65" length="2.34" shape="463.68,198.40 464.88,199.20 465.28,200.00"/>
    </edge>
    <edge id=":J_19" function="internal">
        <lane id=":J_19_0" index="0" speed="3.65" length="2.34" shape="465.28,200.00 464.88,200.80 463.68,201.60"/>
    </edge>
    <edge id=":J_8" function="internal">
        <lane id=":J_8_0" index="0" speed="6.82" length="20.57" shape="464.07,205.55 471.46,203.82 473.86,202.59 471.27,201.85 463.68,201.60"/>
    </edge>
    <edge id=":J_9" function="internal">
        <lane id=":J_9_0" index="0" speed="10.45" length="33.47" shape="464.07,205.55 478.27,202.26 487.74,199.01 492.47,195.81 492.48,192.64"/>
    </edge>
    <edge id=":J_10" function="internal">
        <lane id=":J_10_0" index="0" speed="9.54" length="36.12" shape="464.07,205.55 476.06,203.70 487.08,203.34 493.29,205.55 490.83,211.43"/>
    </edge>
    <edge id=":J_11" function="internal">
        <lane id=":J_11_0" index="0" speed="3.65" length="2.34" shape="464.07,205.55 465.41,206.10 465.96,206.81"/>
    </edge>
    <edge id=":J_20" function="internal">
        <lane id=":J_20_0" index="0" speed="3.65" length="2.34" shape="465.96,206.81 465.72,207.67 464.70,208.69"/>
    </edge>
    <edge id=":J_12" function="internal">
        <lane id=":J_12_0" index="0" speed="8.44" length="27.84" shape="488.57,209.17 489.54,206.68 485.88,205.77 477.60,206.44 464.70,208.69"/>
    </edge>
    <edge id=":J_13" function="internal">
        <lane id=":J_13_0" index="0" speed="9.20" length="30.53" shape="488.57,209.17 489.85,205.86 486.13,203.49 477.41,202.07 463.68,201.60"/>
    </edge>
    <edge id=":J_14" function="internal">
        <lane id=":J_14_0" index="0" speed="9.61" length="18.68" shape="488.57,209.17 492.31,204.64 494.21,200.38 494.26,196.38 492.48,192.64"/>
    </edge>
    <edge id=":J_15" function="internal">
        <lane id=":J_15_0" index="0" speed="3.65" length="2.15" shape="488.57,209.17 489.98,208.89 490.65,209.11"/>
    </edge>
    <edge id=":J_21" function="internal">
        <lane id=":J_21_0" index="0" speed="3.65" length="2.52" shape="490.65,209.11 490.83,209.17 491.11,210.02 490.83,211.43"/>
    </edge>

    <edge id="AtoJ" from="A" to="J" priority="-1">
        <lane id="AtoJ_0" index="0" speed="13.89" length="473.59" shape="-0.31,298.43 464.07,205.55"/>
    </edge>
    <edge id="BtoJ" from="B" to="J" priority="-1">
        <lane id="BtoJ_0" index="0" speed="13.89" length="213.68" shape="250.00,198.40 463.68,198.40"/>
    </edge>
    <edge id="CtoJ" from="C" to="J" priority="-1">
        <lane id="CtoJ_0" index="0" speed="13.89" length="239.60" shape="351.28,-0.96 495.04,190.72"/>
    </edge>
    <edge id="DtoJ" from="D" to="J" priority="-1">
        <lane id="DtoJ_0" index="0" speed="13.89" length="268.27" shape="298.87,398.87 488.57,209.17"/>
    </edge>
    <edge id="JtoA" from="J" to="A" priority="-1">
        <lane id="JtoA_0" index="0" speed="13.89" length="473.59" shape="464.70,208.69 0.31,301.57"/>
    </edge>
    <edge id="JtoB" from="J" to="B" priority="-1">
        <lane id="JtoB_0" index="0" speed="13.89" length="213.68" shape="463.68,201.60 250.00,201.60"/>
    </edge>
    <edge id="JtoC" from="J" to="C" priority="-1">
        <lane id="JtoC_0" index="0" speed="13.89" length="239.60" shape="492.48,192.64 348.72,0.96"/>
    </edge>
    <edge id="JtoD" from="J" to="D" priority="-1">
        <lane id="JtoD_0" index="0" speed="13.89" length="268.27" shape="490.83,211.43 301.13,401.13"/>
    </edge>

    <tlLogic id="J" type="static" programID="0" offset="0">
        <phase duration="24" state="GgggrrrrrrrrGGGg"/>
        <phase duration="3"  state="ygggrrrrrrrryyyy"/>
        <phase duration="6"  state="GGGGrrrrrrrrrrrr"/>
        <phase duration="3"  state="yyyyrrrrrrrrrrrr"/>
        <phase duration="24" state="rrrrGGGgGrrrrrrr"/>
        <phase duration="3"  state="rrrryyyyyrrrrrrr"/>
        <phase duration="24" state="rrrrrrrrGGGgGrrr"/>
        <phase duration="3"  state="rrrrrrrryyyyyrrr"/>
    </tlLogic>

    <junction id="A" type="priority" x="0.00" y="300.00" incLanes="JtoA_0" intLanes=":A_0_0" shape="-0.00,300.00 0.63,303.14 -0.00,300.00">
        <request index="0" response="0" foes="0" cont="0"/>
    </junction>
    <junction id="B" type="priority" x="250.00" y="200.00" incLanes="JtoB_0" intLanes=":B_0_0" shape="250.00,200.00 250.00,203.20 250.00,200.00">
        <request index="0" response="0" foes="0" cont="0"/>
    </junction>
    <junction id="C" type="priority" x="350.00" y="0.00" incLanes="JtoC_0" intLanes=":C_0_0" shape="350.00,0.00 347.44,1.92 350.00,0.00">
        <request index="0" response="0" foes="0" cont="0"/>
    </junction>
    <junction id="D" type="priority" x="300.00" y="400.00" incLanes="JtoD_0" intLanes=":D_0_0" shape="300.00,400.00 302.26,402.26 300.00,400.00">
        <request index="0" response="0" foes="0" cont="0"/>
    </junction>
    <junction id="J" type="traffic_light" x="500.00" y="200.00" incLanes="CtoJ_0 BtoJ_0 AtoJ_0 DtoJ_0" intLanes=":J_0_0 :J_16_0 :J_17_0 :J_18_0 :J_4_0 :J_5_0 :J_6_0 :J_19_0 :J_8_0 :J_9_0 :J_10_0 :J_20_0 :J_12_0 :J_13_0 :J_14_0 :J_21_0" shape="496.32,189.76 491.20,193.60 488.37,195.61 483.96,196.20 478.10,196.56 471.20,196.75 463.68,196.80 463.68,203.20 463.76,203.98 465.02,210.26 471.10,209.08 476.81,208.07 481.71,207.35 485.40,207.02 487.45,207.21 487.44,208.04 491.96,212.56 495.49,208.52 497.90,204.58 499.18,200.73 499.35,196.98 498.39,193.32">
        <request index="0"  response="0000000000000000" foes="1000010000100000" cont="0"/>
        <request index="1"  response="0111000000000000" foes="0111110001100000" cont="1"/>
        <request index="2"  response="0110000000000000" foes="0110001111100000" cont="1"/>
        <request index="3"  response="0100001000010000" foes="0100001000010000" cont="1"/>
        <request index="4"  response="0100000000000000" foes="0100001000001000" cont="0"/>
        <request index="5"  response="0100000000000111" foes="1100011000000111" cont="0"/>
        <request index="6"  response="0011000000000110" foes="0011111000000110" cont="0"/>
        <request index="7"  response="0010000100000100" foes="0010000100000100" cont="1"/>
        <request index="8"  response="0010000000000100" foes="0010000010000100" cont="0"/>
        <request index="9"  response="0110000001110100" foes="0110000001111100" cont="0"/>
        <request index="10" response="0110000001100011" foes="1110000001100011" cont="0"/>
        <request index="11" response="0001000001000010" foes="0001000001000010" cont="1"/>
        <request index="12" response="0000000000000000" foes="0000100001000010" cont="0"/>
        <request index="13" response="0000000000000000" foes="0000011111000110" cont="0"/>
        <request index="14" response="0000000000000000" foes="0000011000111110" cont="0"/>
        <request index="15" response="0000010000100001" foes="0000010000100001" cont="1"/>
    </junction>

    <junction id=":J_16_0" type="internal" x="495.59" y="195.45" incLanes=":J_1_0 DtoJ_0" intLanes=":J_5_0 :J_6_0 :J_10_0 :J_11_0 :J_12_0 :J_13_0 :J_14_0"/>
    <junction id=":J_17_0" type="internal" x="495.50" y="195.26" incLanes=":J_2_0 DtoJ_0" intLanes=":J_5_0 :J_6_0 :J_7_0 :J_8_0 :J_9_0 :J_13_0 :J_14_0"/>
    <junction id=":J_18_0" type="internal" x="494.43" y="193.01" incLanes=":J_3_0 AtoJ_0 BtoJ_0 DtoJ_0" intLanes=":J_4_0 :J_9_0 :J_14_0"/>
    <junction id=":J_19_0" type="internal" x="465.28" y="200.00" incLanes=":J_7_0 AtoJ_0 CtoJ_0 DtoJ_0" intLanes=":J_2_0 :J_8_0 :J_13_0"/>
    <junction id=":J_20_0" type="internal" x="465.96" y="206.81" incLanes=":J_11_0 BtoJ_0 CtoJ_0 DtoJ_0" intLanes=":J_1_0 :J_6_0 :J_12_0"/>
    <junction id=":J_21_0" type="internal" x="490.65" y="209.11" incLanes=":J_15_0 AtoJ_0 BtoJ_0 CtoJ_0" intLanes=":J_0_0 :J_5_0 :J_10_0"/>

    <connection from="AtoJ" to="JtoB" fromLane="0" toLane="0" via=":J_8_0" tl="J" linkIndex="8" dir="r" state="o"/>
    <connection from="AtoJ" to="JtoC" fromLane="0" toLane="0" via=":J_9_0" tl="J" linkIndex="9" dir="r" state="o"/>
    <connection from="AtoJ" to="JtoD" fromLane="0" toLane="0" via=":J_10_0" tl="J" linkIndex="10" dir="l" state="o"/>
    <connection from="AtoJ" to="JtoA" fromLane="0" toLane="0" via=":J_11_0" tl="J" linkIndex="11" dir="t" state="o"/>
    <connection from="BtoJ" to="JtoC" fromLane="0" toLane="0" via=":J_4_0" tl="J" linkIndex="4" dir="r" state="o"/>
    <connection from="BtoJ" to="JtoD" fromLane="0" toLane="0" via=":J_5_0" tl="J" linkIndex="5" dir="l" state="o"/>
    <connection from="BtoJ" to="JtoA" fromLane="0" toLane="0" via=":J_6_0" tl="J" linkIndex="6" dir="l" state="o"/>
    <connection from="BtoJ" to="JtoB" fromLane="0" toLane="0" via=":J_7_0" tl="J" linkIndex="7" dir="t" state="o"/>
    <connection from="CtoJ" to="JtoD" fromLane="0" toLane="0" via=":J_0_0" tl="J" linkIndex="0" dir="L" state="O"/>
    <connection from="CtoJ" to="JtoA" fromLane="0" toLane="0" via=":J_1_0" tl="J" linkIndex="1" dir="l" state="o"/>
    <connection from="CtoJ" to="JtoB" fromLane="0" toLane="0" via=":J_2_0" tl="J" linkIndex="2" dir="l" state="o"/>
    <connection from="CtoJ" to="JtoC" fromLane="0" toLane="0" via=":J_3_0" tl="J" linkIndex="3" dir="t" state="o"/>
    <connection from="DtoJ" to="JtoA" fromLane="0" toLane="0" via=":J_12_0" tl="J" linkIndex="12" dir="r" state="O"/>
    <connection from="DtoJ" to="JtoB" fromLane="0" toLane="0" via=":J_13_0" tl="J" linkIndex="13" dir="r" state="O"/>
    <connection from="DtoJ" to="JtoC" fromLane="0" toLane="0" via=":J_14_0" tl="J" linkIndex="14" dir="R" state="O"/>
    <connection from="DtoJ" to="JtoD" fromLane="0" toLane="0" via=":J_15_0" tl="J" linkIndex="15" dir="t" state="o"/>
    <connection from="JtoA" to="AtoJ" fromLane="0" toLane="0" via=":A_0_0" dir="t" state="M"/>
    <connection from="JtoB" to="BtoJ" fromLane="0" toLane="0" via=":B_0_0" dir="t" state="M"/>
    <connection from="JtoC" to="CtoJ" fromLane="0" toLane="0" via=":C_0_0" dir="t" state="M"/>
    <connection from="JtoD" to="DtoJ" fromLane="0" toLane="0" via=":D_0_0" dir="t" state="M"/>

    <connection from=":A_0" to="AtoJ" fromLane="0" toLane="0" dir="t" state="M"/>
    <connection from=":B_0" to="BtoJ" fromLane="0" toLane="0" dir="t" state="M"/>
    <connection from=":C_0" to="CtoJ" fromLane="0" toLane="0" dir="t" state="M"/>
    <connection from=":D_0" to="DtoJ" fromLane="0" toLane="0" dir="t" state="M"/>
    <connection from=":J_0" to="JtoD" fromLane="0" toLane="0" dir="L" state="M"/>
    <connection from=":J_1" to="JtoA" fromLane="0" toLane="0" via=":J_16_0" dir="l" state="m"/>
    <connection from=":J_16" to="JtoA" fromLane="0" toLane="0" dir="l" state="M"/>
    <connection from=":J_2" to="JtoB" fromLane="0" toLane="0" via=":J_17_0" dir="l" state="m"/>
    <connection from=":J_17" to="JtoB" fromLane="0" toLane="0" dir="l" state="M"/>
    <connection from=":J_3" to="JtoC" fromLane="0" toLane="0" via=":J_18_0" dir="t" state="m"/>
    <connection from=":J_18" to="JtoC" fromLane="0" toLane="0" dir="t" state="M"/>
    <connection from=":J_4" to="JtoC" fromLane="0" toLane="0" dir="r" state="M"/>
    <connection from=":J_5" to="JtoD" fromLane="0" toLane="0" dir="l" state="M"/>
    <connection from=":J_6" to="JtoA" fromLane="0" toLane="0" dir="l" state="M"/>
    <connection from=":J_7" to="JtoB" fromLane="0" toLane="0" via=":J_19_0" dir="t" state="m"/>
    <connection from=":J_19" to="JtoB" fromLane="0" toLane="0" dir="t" state="M"/>
    <connection from=":J_8" to="JtoB" fromLane="0" toLane="0" dir="r" state="M"/>
    <connection from=":J_9" to="JtoC" fromLane="0" toLane="0" dir="r" state="M"/>
    <connection from=":J_10" to="JtoD" fromLane="0" toLane="0" dir="l" state="M"/>
    <connection from=":J_11" to="JtoA" fromLane="0" toLane="0" via=":J_20_0" dir="t" state="m"/>
    <connection from=":J_20" to="JtoA" fromLane="0" toLane="0" dir="t" state="M"/>
    <connection from=":J_12" to="JtoA" fromLane="0" toLane="0" dir="r" state="M"/>
    <connection from=":J_13" to="JtoB" fromLane="0" toLane="0" dir="r" state="M"/>
    <connection from=":J_14" to="JtoC" fromLane="0" toLane="0" dir="R" state="M"/>
    <connection from=":J_15" to="JtoD" fromLane="0" toLane="0" via=":J_21_0" dir="t" state="m"/>
    <connection from=":J_21" to="JtoD" fromLane="0" toLane="0" dir="t" state="M"/>

</net>
